# Name file for MODFLOW-2005, generated by Flopy.
#xul:0; yul:404; rotation:0; proj4_str:+init=EPSG:4326; units:meters; lenuni:2 ;start_datetime:1-1-1970
LIST           2 lake_example.list
DIS           11 lake_example.dis 
BAS6          13 lake_example.bas 
LPF           15 lake_example.lpf 
PCG           27 lake_example.pcg 
OC            14 lake_example.oc 
DATA(BINARY)  51 lake_example.hds REPLACE
DATA(BINARY)  52 lake_example.ddn REPLACE
DATA(BINARY)  53 lake_example.cbc REPLACE
