# CHD for MODFLOW, generated by Flopy.
       346
       346         0 # stress period 0
         4         5         1    110.74    110.66
         5         5         1    110.74    110.66
         4         5         2    110.74    110.66
         5         5         2    110.74    110.66
         4         5         3    110.74    110.66
         5         5         3    110.74    110.66
         4         5         4    110.74    110.66
         5         5         4    110.74    110.66
         4         5         5    110.74    110.66
         5         5         5    110.74    110.66
         4         5         6    110.74    110.66
         5         5         6    110.74    110.66
         4         5         7    110.74    110.66
         5         5         7    110.74    110.66
         4         5         8    110.74    110.66
         5         5         8    110.74    110.66
         4         5         9    110.74    110.66
         5         5         9    110.74    110.66
         4         5        10    110.74    110.66
         5         5        10    110.74    110.66
         4         5        11    110.74    110.66
         5         5        11    110.74    110.66
         4         5        12    110.74    110.66
         5         5        12    110.74    110.66
         4         5        13    110.74    110.66
         5         5        13    110.74    110.66
         4         5        14    110.74    110.66
         5         5        14    110.74    110.66
         4         5        15    110.74    110.66
         5         5        15    110.74    110.66
         4         5        16    110.74    110.66
         5         5        16    110.74    110.66
         4         4        16    110.74    110.66
         5         4        16    110.74    110.66
         4         4        17    110.74    110.66
         5         4        17    110.74    110.66
         4         4        18    110.74    110.66
         5         4        18    110.74    110.66
         4         4        19    110.74    110.66
         5         4        19    110.74    110.66
         4         4        20    110.74    110.66
         5         4        20    110.74    110.66
         4         4        21    110.74    110.66
         5         4        21    110.74    110.66
         4         4        22    110.74    110.66
         5         4        22    110.74    110.66
         4         4        23    110.74    110.66
         5         4        23    110.74    110.66
         4         4        24    110.74    110.66
         5         4        24    110.74    110.66
         4         4        25    110.74    110.66
         5         4        25    110.74    110.66
         4         4        26    110.74    110.66
         5         4        26    110.74    110.66
         4         4        27    110.74    110.66
         5         4        27    110.74    110.66
         4         4        28    110.74    110.66
         5         4        28    110.74    110.66
         4         4        29    110.74    110.66
         5         4        29    110.74    110.66
         4         4        30    110.74    110.66
         5         4        30    110.74    110.66
         4         4        31    110.74    110.66
         5         4        31    110.74    110.66
         4         4        32    110.74    110.66
         5         4        32    110.74    110.66
         4         4        33    110.74    110.66
         5         4        33    110.74    110.66
         4         4        34    110.74    110.66
         5         4        34    110.74    110.66
         4         3        34    110.74    110.66
         5         3        34    110.74    110.66
         4         3        35    110.74    110.66
         5         3        35    110.74    110.66
         4         3        36    110.74    110.66
         5         3        36    110.74    110.66
         4         3        37    110.74    110.66
         5         3        37    110.74    110.66
         4         3        38    110.74    110.66
         5         3        38    110.74    110.66
         4         3        39    110.74    110.66
         5         3        39    110.74    110.66
         4         3        40    110.74    110.66
         5         3        40    110.74    110.66
         4         3        41    110.74    110.66
         5         3        41    110.74    110.66
         4         3        42    110.74    110.66
         5         3        42    110.74    110.66
         4         3        43    110.74    110.66
         5         3        43    110.74    110.66
         4         3        44    110.74    110.66
         5         3        44    110.74    110.66
         4         3        45    110.74    110.66
         5         3        45    110.74    110.66
         4         3        46    110.74    110.66
         5         3        46    110.74    110.66
         4         3        47    110.74    110.66
         5         3        47    110.74    110.66
         4         3        48    110.74    110.66
         5         3        48    110.74    110.66
         4         3        49    110.74    110.66
         5         3        49    110.74    110.66
         4         3        50    110.74    110.66
         5         3        50    110.74    110.66
         4         3        51    110.74    110.66
         5         3        51    110.74    110.66
         4         2        51    110.74    110.66
         5         2        51    110.74    110.66
         4         2        52    110.74    110.66
         5         2        52    110.74    110.66
         4         2        53    110.74    110.66
         5         2        53    110.74    110.66
         4         2        54    110.74    110.66
         5         2        54    110.74    110.66
         4         2        55    110.74    110.66
         5         2        55    110.74    110.66
         4         2        56    110.74    110.66
         5         2        56    110.74    110.66
         4         2        57    110.74    110.66
         5         2        57    110.74    110.66
         4         2        58    110.74    110.66
         5         2        58    110.74    110.66
         4         2        59    110.74    110.66
         5         2        59    110.74    110.66
         4         2        60    110.74    110.66
         5         2        60    110.74    110.66
         4         2        61    110.74    110.66
         5         2        61    110.74    110.66
         4         2        62    110.74    110.66
         5         2        62    110.74    110.66
         4         2        63    110.74    110.66
         5         2        63    110.74    110.66
         4         2        64    110.74    110.66
         5         2        64    110.74    110.66
         4         2        65    110.74    110.66
         5         2        65    110.74    110.66
         4         2        66    110.74    110.66
         5         2        66    110.74    110.66
         4         2        67    110.74    110.66
         5         2        67    110.74    110.66
         4         2        68    110.74    110.66
         5         2        68    110.74    110.66
         4         2        69    110.74    110.66
         5         2        69    110.74    110.66
         4         1        69    110.74    110.66
         5         1        69    110.74    110.66
         4         1        70    110.74    110.66
         5         1        70    110.74    110.66
         4        72        70   110.659    110.49
         5        72        70   110.659    110.49
         4        72        69   110.658   110.489
         5        72        69   110.658   110.489
         4        71        69   110.658   110.489
         5        71        69   110.658   110.489
         4        71        68   110.658   110.489
         5        71        68   110.658   110.489
         4        70        68   110.658   110.489
         5        70        68   110.658   110.489
         4        70        67   110.657   110.488
         5        70        67   110.657   110.488
         4        71        67   110.657   110.488
         5        71        67   110.657   110.488
         4        71        66   110.657   110.488
         5        71        66   110.657   110.488
         4        71        65   110.656   110.487
         5        71        65   110.656   110.487
         4        72        65   110.656   110.487
         5        72        65   110.656   110.487
         4        72        64   110.655   110.486
         5        72        64   110.655   110.486
         4        72        63   110.655   110.486
         5        72        63   110.655   110.486
         4        73        63   110.655   110.486
         5        73        63   110.655   110.486
         4        73        62   110.654   110.485
         5        73        62   110.654   110.485
         4        73        61   110.654   110.485
         5        73        61   110.654   110.485
         4        74        61   110.654   110.485
         5        74        61   110.654   110.485
         4        75        61   110.654   110.485
         5        75        61   110.654   110.485
         4        76        61   110.654   110.485
         5        76        61   110.654   110.485
         4        76        60   110.653   110.484
         5        76        60   110.653   110.484
         4        77        60   110.653   110.484
         5        77        60   110.653   110.484
         4        77        59   110.653   110.484
         5        77        59   110.653   110.484
         4        78        59   110.653   110.484
         5        78        59   110.653   110.484
         4        78        58   110.652   110.483
         5        78        58   110.652   110.483
         4        79        58   110.652   110.483
         5        79        58   110.652   110.483
         4        79        57   110.651   110.482
         5        79        57   110.651   110.482
         4        79        56   110.651   110.482
         5        79        56   110.651   110.482
         4        79        55    110.65   110.481
         5        79        55    110.65   110.481
         4        80        55    110.65   110.481
         5        80        55    110.65   110.481
         4        80        54    110.65   110.481
         5        80        54    110.65   110.481
         4        80        53   110.649    110.48
         5        80        53   110.649    110.48
         4        81        53   110.649    110.48
         5        81        53   110.649    110.48
         4        82        52   110.649    110.48
         5        82        52   110.649    110.48
         4        81        52   110.649    110.48
         5        81        52   110.649    110.48
         4        81        51   110.648   110.479
         5        81        51   110.648   110.479
         4        81        50   110.647   110.478
         5        81        50   110.647   110.478
         4        81        49   110.647   110.478
         5        81        49   110.647   110.478
         4        81        48   110.646   110.477
         5        81        48   110.646   110.477
         4        82        48   110.646   110.477
         5        82        48   110.646   110.477
         4        82        47   110.646   110.477
         5        82        47   110.646   110.477
         4        81        46   110.645   110.476
         5        81        46   110.645   110.476
         4        82        46   110.645   110.476
         5        82        46   110.645   110.476
         4        82        45   110.645   110.476
         5        82        45   110.645   110.476
         4        82        44   110.644   110.475
         5        82        44   110.644   110.475
         4        82        43   110.643   110.474
         5        82        43   110.643   110.474
         4        83        43   110.643   110.474
         5        83        43   110.643   110.474
         4        83        42   110.643   110.474
         5        83        42   110.643   110.474
         4        84        42   110.643   110.474
         5        84        42   110.643   110.474
         4        84        41   110.642   110.473
         5        84        41   110.642   110.473
         4        84        40   110.642   110.473
         5        84        40   110.642   110.473
         4        84        39   110.641   110.472
         5        84        39   110.641   110.472
         4        83        39   110.641   110.472
         5        83        39   110.641   110.472
         4        83        38    110.64   110.471
         5        83        38    110.64   110.471
         4        83        37    110.64   110.471
         5        83        37    110.64   110.471
         4        84        37    110.64   110.471
         5        84        37    110.64   110.471
         4        84        36   110.639    110.47
         5        84        36   110.639    110.47
         4        85        36   110.639    110.47
         5        85        36   110.639    110.47
         4        85        35   110.639    110.47
         5        85        35   110.639    110.47
         4        84        35   110.639    110.47
         5        84        35   110.639    110.47
         4        84        34   110.638   110.469
         5        84        34   110.638   110.469
         4        83        33   110.638   110.469
         5        83        33   110.638   110.469
         4        84        33   110.638   110.469
         5        84        33   110.638   110.469
         4        84        32   110.637   110.468
         5        84        32   110.637   110.468
         4        84        31   110.636   110.467
         5        84        31   110.636   110.467
         4        84        30   110.636   110.467
         5        84        30   110.636   110.467
         4        84        29   110.635   110.466
         5        84        29   110.635   110.466
         4        85        29   110.635   110.466
         5        85        29   110.635   110.466
         4        85        28   110.635   110.466
         5        85        28   110.635   110.466
         4        85        27   110.634   110.465
         5        85        27   110.634   110.465
         4        85        26   110.634   110.465
         5        85        26   110.634   110.465
         4        85        25   110.633   110.464
         5        85        25   110.633   110.464
         4        86        25   110.633   110.464
         5        86        25   110.633   110.464
         4        86        24   110.632   110.463
         5        86        24   110.632   110.463
         4        86        23   110.632   110.463
         5        86        23   110.632   110.463
         4        86        22   110.631   110.462
         5        86        22   110.631   110.462
         4        86        21   110.631   110.462
         5        86        21   110.631   110.462
         4        86        20    110.63   110.461
         5        86        20    110.63   110.461
         4        86        19    110.63   110.461
         5        86        19    110.63   110.461
         4        87        19    110.63   110.461
         5        87        19    110.63   110.461
         4        87        18   110.629    110.46
         5        87        18   110.629    110.46
         4        87        17   110.628   110.459
         5        87        17   110.628   110.459
         4        87        16   110.628   110.459
         5        87        16   110.628   110.459
         4        87        15   110.627   110.458
         5        87        15   110.627   110.458
         4        87        14   110.627   110.458
         5        87        14   110.627   110.458
         4        87        13   110.626   110.457
         5        87        13   110.626   110.457
         4        87        12   110.626   110.457
         5        87        12   110.626   110.457
         4        88        12   110.626   110.457
         5        88        12   110.626   110.457
         4        88        11   110.625   110.456
         5        88        11   110.625   110.456
         4        88        10   110.624   110.455
         5        88        10   110.624   110.455
         4        88         9   110.624   110.455
         5        88         9   110.624   110.455
         4        88         8   110.623   110.454
         5        88         8   110.623   110.454
         4        88         7   110.623   110.454
         5        88         7   110.623   110.454
         4        88         6   110.622   110.453
         5        88         6   110.622   110.453
         4        88         5   110.621   110.452
         5        88         5   110.621   110.452
         4        89         5   110.621   110.452
         5        89         5   110.621   110.452
         4        89         4   110.621   110.452
         5        89         4   110.621   110.452
         4        89         3    110.62   110.451
         5        89         3    110.62   110.451
         4        89         2    110.62   110.451
         5        89         2    110.62   110.451
         4        90         2    110.62   110.451
         5        90         2    110.62   110.451
         4        90         1   110.619    110.45
         5        90         1   110.619    110.45
       346         0 # stress period 1
         4         5         1    110.66   110.575
         5         5         1    110.66   110.575
         4         5         2    110.66   110.575
         5         5         2    110.66   110.575
         4         5         3    110.66   110.575
         5         5         3    110.66   110.575
         4         5         4    110.66   110.575
         5         5         4    110.66   110.575
         4         5         5    110.66   110.575
         5         5         5    110.66   110.575
         4         5         6    110.66   110.575
         5         5         6    110.66   110.575
         4         5         7    110.66   110.575
         5         5         7    110.66   110.575
         4         5         8    110.66   110.575
         5         5         8    110.66   110.575
         4         5         9    110.66   110.575
         5         5         9    110.66   110.575
         4         5        10    110.66   110.575
         5         5        10    110.66   110.575
         4         5        11    110.66   110.575
         5         5        11    110.66   110.575
         4         5        12    110.66   110.575
         5         5        12    110.66   110.575
         4         5        13    110.66   110.575
         5         5        13    110.66   110.575
         4         5        14    110.66   110.575
         5         5        14    110.66   110.575
         4         5        15    110.66   110.575
         5         5        15    110.66   110.575
         4         5        16    110.66   110.575
         5         5        16    110.66   110.575
         4         4        16    110.66   110.575
         5         4        16    110.66   110.575
         4         4        17    110.66   110.575
         5         4        17    110.66   110.575
         4         4        18    110.66   110.575
         5         4        18    110.66   110.575
         4         4        19    110.66   110.575
         5         4        19    110.66   110.575
         4         4        20    110.66   110.575
         5         4        20    110.66   110.575
         4         4        21    110.66   110.575
         5         4        21    110.66   110.575
         4         4        22    110.66   110.575
         5         4        22    110.66   110.575
         4         4        23    110.66   110.575
         5         4        23    110.66   110.575
         4         4        24    110.66   110.575
         5         4        24    110.66   110.575
         4         4        25    110.66   110.575
         5         4        25    110.66   110.575
         4         4        26    110.66   110.575
         5         4        26    110.66   110.575
         4         4        27    110.66   110.575
         5         4        27    110.66   110.575
         4         4        28    110.66   110.575
         5         4        28    110.66   110.575
         4         4        29    110.66   110.575
         5         4        29    110.66   110.575
         4         4        30    110.66   110.575
         5         4        30    110.66   110.575
         4         4        31    110.66   110.575
         5         4        31    110.66   110.575
         4         4        32    110.66   110.575
         5         4        32    110.66   110.575
         4         4        33    110.66   110.575
         5         4        33    110.66   110.575
         4         4        34    110.66   110.575
         5         4        34    110.66   110.575
         4         3        34    110.66   110.575
         5         3        34    110.66   110.575
         4         3        35    110.66   110.575
         5         3        35    110.66   110.575
         4         3        36    110.66   110.575
         5         3        36    110.66   110.575
         4         3        37    110.66   110.575
         5         3        37    110.66   110.575
         4         3        38    110.66   110.575
         5         3        38    110.66   110.575
         4         3        39    110.66   110.575
         5         3        39    110.66   110.575
         4         3        40    110.66   110.575
         5         3        40    110.66   110.575
         4         3        41    110.66   110.575
         5         3        41    110.66   110.575
         4         3        42    110.66   110.575
         5         3        42    110.66   110.575
         4         3        43    110.66   110.575
         5         3        43    110.66   110.575
         4         3        44    110.66   110.575
         5         3        44    110.66   110.575
         4         3        45    110.66   110.575
         5         3        45    110.66   110.575
         4         3        46    110.66   110.575
         5         3        46    110.66   110.575
         4         3        47    110.66   110.575
         5         3        47    110.66   110.575
         4         3        48    110.66   110.575
         5         3        48    110.66   110.575
         4         3        49    110.66   110.575
         5         3        49    110.66   110.575
         4         3        50    110.66   110.575
         5         3        50    110.66   110.575
         4         3        51    110.66   110.575
         5         3        51    110.66   110.575
         4         2        51    110.66   110.575
         5         2        51    110.66   110.575
         4         2        52    110.66   110.575
         5         2        52    110.66   110.575
         4         2        53    110.66   110.575
         5         2        53    110.66   110.575
         4         2        54    110.66   110.575
         5         2        54    110.66   110.575
         4         2        55    110.66   110.575
         5         2        55    110.66   110.575
         4         2        56    110.66   110.575
         5         2        56    110.66   110.575
         4         2        57    110.66   110.575
         5         2        57    110.66   110.575
         4         2        58    110.66   110.575
         5         2        58    110.66   110.575
         4         2        59    110.66   110.575
         5         2        59    110.66   110.575
         4         2        60    110.66   110.575
         5         2        60    110.66   110.575
         4         2        61    110.66   110.575
         5         2        61    110.66   110.575
         4         2        62    110.66   110.575
         5         2        62    110.66   110.575
         4         2        63    110.66   110.575
         5         2        63    110.66   110.575
         4         2        64    110.66   110.575
         5         2        64    110.66   110.575
         4         2        65    110.66   110.575
         5         2        65    110.66   110.575
         4         2        66    110.66   110.575
         5         2        66    110.66   110.575
         4         2        67    110.66   110.575
         5         2        67    110.66   110.575
         4         2        68    110.66   110.575
         5         2        68    110.66   110.575
         4         2        69    110.66   110.575
         5         2        69    110.66   110.575
         4         1        69    110.66   110.575
         5         1        69    110.66   110.575
         4         1        70    110.66   110.575
         5         1        70    110.66   110.575
         4        72        70    110.49   110.391
         5        72        70    110.49   110.391
         4        72        69   110.489    110.39
         5        72        69   110.489    110.39
         4        71        69   110.489    110.39
         5        71        69   110.489    110.39
         4        71        68   110.489    110.39
         5        71        68   110.489    110.39
         4        70        68   110.489    110.39
         5        70        68   110.489    110.39
         4        70        67   110.488   110.389
         5        70        67   110.488   110.389
         4        71        67   110.488   110.389
         5        71        67   110.488   110.389
         4        71        66   110.488   110.389
         5        71        66   110.488   110.389
         4        71        65   110.487   110.388
         5        71        65   110.487   110.388
         4        72        65   110.487   110.388
         5        72        65   110.487   110.388
         4        72        64   110.486   110.387
         5        72        64   110.486   110.387
         4        72        63   110.486   110.387
         5        72        63   110.486   110.387
         4        73        63   110.486   110.387
         5        73        63   110.486   110.387
         4        73        62   110.485   110.386
         5        73        62   110.485   110.386
         4        73        61   110.485   110.386
         5        73        61   110.485   110.386
         4        74        61   110.485   110.386
         5        74        61   110.485   110.386
         4        75        61   110.485   110.386
         5        75        61   110.485   110.386
         4        76        61   110.485   110.386
         5        76        61   110.485   110.386
         4        76        60   110.484   110.385
         5        76        60   110.484   110.385
         4        77        60   110.484   110.385
         5        77        60   110.484   110.385
         4        77        59   110.484   110.385
         5        77        59   110.484   110.385
         4        78        59   110.484   110.385
         5        78        59   110.484   110.385
         4        78        58   110.483   110.384
         5        78        58   110.483   110.384
         4        79        58   110.483   110.384
         5        79        58   110.483   110.384
         4        79        57   110.482   110.383
         5        79        57   110.482   110.383
         4        79        56   110.482   110.383
         5        79        56   110.482   110.383
         4        79        55   110.481   110.382
         5        79        55   110.481   110.382
         4        80        55   110.481   110.382
         5        80        55   110.481   110.382
         4        80        54   110.481   110.382
         5        80        54   110.481   110.382
         4        80        53    110.48   110.381
         5        80        53    110.48   110.381
         4        81        53    110.48   110.381
         5        81        53    110.48   110.381
         4        82        52    110.48   110.381
         5        82        52    110.48   110.381
         4        81        52    110.48   110.381
         5        81        52    110.48   110.381
         4        81        51   110.479    110.38
         5        81        51   110.479    110.38
         4        81        50   110.478   110.379
         5        81        50   110.478   110.379
         4        81        49   110.478   110.379
         5        81        49   110.478   110.379
         4        81        48   110.477   110.378
         5        81        48   110.477   110.378
         4        82        48   110.477   110.378
         5        82        48   110.477   110.378
         4        82        47   110.477   110.378
         5        82        47   110.477   110.378
         4        81        46   110.476   110.377
         5        81        46   110.476   110.377
         4        82        46   110.476   110.377
         5        82        46   110.476   110.377
         4        82        45   110.476   110.377
         5        82        45   110.476   110.377
         4        82        44   110.475   110.376
         5        82        44   110.475   110.376
         4        82        43   110.474   110.375
         5        82        43   110.474   110.375
         4        83        43   110.474   110.375
         5        83        43   110.474   110.375
         4        83        42   110.474   110.375