# Discretization file for MODFLOW, generated by Flopy.
         5        90        70       132         1         2
  0  0  0  0  0
INTERNAL               1  (70E15.6) -1 #delr                          
   2.000000E+00   2.000000E+00   2.000000E+00   2.000000E+00   2.000000E+00   2.000000E+00   2.000000E+00   2.000000E+00   2.000000E+00   2.000000E+00   2.039506E+00   1.960494E+00   2.000000E+00   2.000000E+00   2.000000E+00   2.000000E+00   2.000000E+00   2.000000E+00   2.000000E+00   2.000000E+00   2.000000E+00   2.000000E+00   2.000000E+00   2.000000E+00   2.000000E+00   2.000000E+00   2.000000E+00   2.000000E+00   2.000000E+00   2.000000E+00   2.000000E+00   2.000000E+00   2.000000E+00   2.000000E+00   2.000000E+00   2.000000E+00   2.000000E+00   2.000000E+00   2.000000E+00   2.000000E+00   2.000000E+00   2.000000E+00   2.000000E+00   2.000000E+00   2.000000E+00   2.000000E+00   2.000000E+00   2.000000E+00   2.000000E+00   2.000000E+00   2.000000E+00   2.000000E+00   2.000000E+00   2.000000E+00   2.000000E+00   2.000000E+00   2.000000E+00   2.000000E+00   2.000000E+00   2.000000E+00   2.000000E+00   2.000000E+00   2.000000E+00   2.000000E+00   2.000000E+00   2.000000E+00   2.000000E+00   2.000000E+00   1.830453E+00   1.947325E+00
INTERNAL               1  (90E15.6) -1 #delc                          
   2.000000E+00   2.000000E+00   2.000000E+00   2.000000E+00   2.000000E+00   2.000000E+00   2.000000E+00   2.000000E+00   2.000000E+00   2.000000E+00   2.000000E+00   2.000000E+00   2.000000E+00   2.000000E+00   2.000000E+00   2.000000E+00   2.000000E+00   2.000000E+00   2.000000E+00   2.000000E+00   2.000000E+00   2.000000E+00   2.000000E+00   2.000000E+00   2.000000E+00   2.000000E+00   2.000000E+00   2.000000E+00   2.000000E+00   2.000000E+00   2.000000E+00   2.000000E+00   2.000000E+00   2.000000E+00   2.000000E+00   2.000000E+00   2.000000E+00   2.000000E+00   2.000000E+00   2.000000E+00   2.000000E+00   2.000000E+00   2.000000E+00   2.000000E+00   2.000000E+00   2.000000E+00   2.000000E+00   2.000000E+00   2.000000E+00   2.000000E+00   2.000000E+00   2.000000E+00   2.000000E+00   2.000000E+00   2.000000E+00   2.000000E+00   2.000000E+00   2.000000E+00   2.000000E+00   2.000000E+00   2.000000E+00   2.000000E+00   2.000000E+00   2.000000E+00   2.000000E+00   2.000000E+00   2.000000E+00   2.000000E+00   2.000000E+00   2.000000E+00   2.000000E+00   2.000000E+00   2.000000E+00   2.000000E+00   2.000000E+00   2.000000E+00   2.000000E+00   2.000000E+00   2.000000E+00   2.000000E+00   2.000000E+00   2.000000E+00   2.000000E+00   2.000000E+00   2.000000E+00   2.000000E+00   2.000000E+00   2.000000E+00   2.000000E+00   2.000000E+00
INTERNAL               1     (FREE) 12 #top                           
   1.193400E+02   1.193400E+02   1.193400E+02   1.193400E+02   1.193400E+02   1.193400E+02   1.193381E+02   1.193356E+02   1.193331E+02   1.193306E+02   1.193281E+02   1.193256E+02   1.193231E+02   1.193206E+02   1.193181E+02   1.193156E+02   1.193131E+02   1.193106E+02   1.193081E+02   1.193056E+02   1.193031E+02   1.193006E+02   1.192981E+02   1.192956E+02   1.192931E+02   1.192906E+02   1.192881E+02   1.192856E+02   1.192831E+02   1.192806E+02   1.192781E+02   1.192770E+02   1.192770E+02   1.192770E+02   1.192770E+02   1.192770E+02   1.192770E+02   1.192770E+02   1.192770E+02   1.192770E+02   1.192770E+02   1.192770E+02   1.192770E+02   1.192770E+02   1.192695E+02   1.192102E+02   1.191509E+02   1.190916E+02   1.190323E+02   1.189731E+02   1.189138E+02   1.188545E+02   1.187952E+02   1.187360E+02   1.186767E+02   1.186174E+02   1.185581E+02   1.184988E+02   1.184396E+02   1.183803E+02   1.183210E+02   1.182617E+02   1.182025E+02   1.181432E+02   1.180839E+02   1.180246E+02   1.179653E+02   1.179061E+02   1.178493E+02   1.177933E+02
   1.193400E+02   1.193400E+02   1.193400E+02   1.193400E+02   1.193400E+02   1.193400E+02   1.193390E+02   1.193365E+02   1.193340E+02   1.193315E+02   1.193290E+02   1.193265E+02   1.193240E+02   1.193215E+02   1.193190E+02   1.193165E+02   1.193140E+02   1.193115E+02   1.193090E+02   1.193065E+02   1.193040E+02   1.193014E+02   1.192989E+02   1.192964E+02   1.192939E+02   1.192914E+02   1.192889E+02   1.192864E+02   1.192839E+02   1.192814E+02   1.192789E+02   1.192770E+02   1.192770E+02   1.192770E+02   1.192770E+02   1.192770E+02   1.192770E+02   1.192770E+02   1.192770E+02   1.192770E+02   1.192770E+02   1.192770E+02   1.192770E+02   1.192755E+02   1.192162E+02   1.191569E+02   1.190977E+02   1.190384E+02   1.189791E+02   1.189198E+02   1.188605E+02   1.188013E+02   1.187420E+02   1.186827E+02   1.186234E+02   1.185642E+02   1.185049E+02   1.184456E+02   1.183863E+02   1.183270E+02   1.182678E+02   1.182085E+02   1.181492E+02   1.180899E+02   1.180306E+02   1.179714E+02   1.179121E+02   1.178528E+02   1.177960E+02   1.177401E+02
   1.193400E+02   1.193400E+02   1.193400E+02   1.193400E+02   1.193400E+02   1.193400E+02   1.193399E+02   1.193374E+02   1.193349E+02   1.193324E+02   1.193298E+02   1.193273E+02   1.193248E+02   1.193223E+02   1.193198E+02   1.193173E+02   1.193148E+02   1.193123E+02   1.193098E+02   1.193073E+02   1.193048E+02   1.193023E+02   1.192998E+02   1.192973E+02   1.192948E+02   1.192923E+02   1.192898E+02   1.192873E+02   1.192848E+02   1.192823E+02   1.192798E+02   1.192773E+02   1.192770E+02   1.192770E+02   1.192770E+02   1.192770E+02   1.192770E+02   1.192770E+02   1.192770E+02   1.192770E+02   1.192770E+02   1.192770E+02   1.192770E+02   1.192222E+02   1.191630E+02   1.191037E+02   1.190444E+02   1.189851E+02   1.189259E+02   1.188666E+02   1.188073E+02   1.187480E+02   1.186887E+02   1.186295E+02   1.185702E+02   1.185109E+02   1.184516E+02   1.183923E+02   1.183331E+02   1.182738E+02   1.182145E+02   1.181552E+02   1.180960E+02   1.180367E+02   1.179774E+02   1.179181E+02   1.178588E+02   1.177996E+02   1.177428E+02   1.176868E+02
   1.193400E+02   1.193400E+02   1.193400E+02   1.193400E+02   1.193400E+02   1.193400E+02   1.193400E+02   1.193382E+02   1.193357E+02   1.193332E+02   1.193307E+02   1.193282E+02   1.193257E+02   1.193232E+02   1.193207E+02   1.193182E+02   1.193157E+02   1.193132E+02   1.193107E+02   1.193082E+02   1.193057E+02   1.193032E+02   1.193007E+02   1.192982E+02   1.192957E+02   1.192932E+02   1.192907E+02   1.192882E+02   1.192857E+02   1.192831E+02   1.192806E+02   1.192781E+02   1.192770E+02   1.192770E+02   1.192770E+02   1.192770E+02   1.192770E+02   1.192770E+02   1.192770E+02   1.192770E+02   1.192770E+02   1.192770E+02   1.192283E+02   1.191690E+02   1.191097E+02   1.190504E+02   1.189912E+02   1.189319E+02   1.188726E+02   1.188133E+02   1.187541E+02   1.186948E+02   1.186355E+02   1.185762E+02   1.185169E+02   1.184577E+02   1.183984E+02   1.183391E+02   1.182798E+02   1.182205E+02   1.181613E+02   1.181020E+02   1.180427E+02   1.179834E+02   1.179241E+02   1.178649E+02   1.178056E+02   1.177463E+02   1.176895E+02   1.176336E+02
   1.193400E+02   1.193400E+02   1.193400E+02   1.193400E+02   1.193400E+02   1.193400E+02   1.193400E+02   1.193391E+02   1.193366E+02   1.193341E+02   1.193316E+02   1.193290E+02   1.193266E+02   1.193241E+02   1.193216E+02   1.193191E+02   1.193166E+02   1.193140E+02   1.193115E+02   1.193090E+02   1.193065E+02   1.193040E+02   1.193015E+02   1.192990E+02   1.192965E+02   1.192940E+02   1.192915E+02   1.192890E+02   1.192865E+02   1.192840E+02   1.192815E+02   1.192790E+02   1.192770E+02   1.192770E+02   1.192770E+02   1.192770E+02   1.192770E+02   1.192770E+02   1.192770E+02   1.192770E+02   1.192770E+02   1.192343E+02   1.191750E+02   1.191158E+02   1.190565E+02   1.189972E+02   1.189379E+02   1.188786E+02   1.188194E+02   1.187601E+02   1.187008E+02   1.186415E+02   1.185822E+02   1.185230E+02   1.184637E+02   1.184044E+02   1.183451E+02   1.182859E+02   1.182266E+02   1.181673E+02   1.181080E+02   1.180487E+02   1.179895E+02   1.179302E+02   1.178709E+02   1.178116E+02   1.177523E+02   1.176931E+02   1.176363E+02   1.175803E+02
   1.193400E+02   1.193400E+02   1.193400E+02   1.193400E+02   1.193400E+02   1.193400E+02   1.193400E+02   1.193400E+02   1.193374E+02   1.193349E+02   1.193324E+02   1.193299E+02   1.193274E+02   1.193249E+02   1.193224E+02   1.193199E+02   1.193174E+02   1.193149E+02   1.193124E+02   1.193099E+02   1.193074E+02   1.193049E+02   1.193024E+02   1.192999E+02   1.192974E+02   1.192949E+02   1.192924E+02   1.192899E+02   1.192874E+02   1.192849E+02   1.192824E+02   1.192799E+02   1.192774E+02   1.192770E+02   1.192770E+02   1.192770E+02   1.192770E+02   1.192770E+02   1.192770E+02   1.192770E+02   1.192403E+02   1.191811E+02   1.191218E+02   1.190625E+02   1.190032E+02   1.189439E+02   1.188847E+02   1.188254E+02   1.187661E+02   1.187068E+02   1.186476E+02   1.185883E+02   1.185290E+02   1.184697E+02   1.184104E+02   1.183512E+02   1.182919E+02   1.182326E+02   1.181733E+02   1.181140E+02   1.180548E+02   1.179955E+02   1.179362E+02   1.178769E+02   1.178176E+02   1.177584E+02   1.176991E+02   1.176398E+02   1.175830E+02   1.175271E+02
   1.193400E+02   1.193400E+02   1.193400E+02   1.193400E+02   1.193400E+02   1.193400E+02   1.193400E+02   1.193400E+02   1.193383E+02   1.193358E+02   1.193333E+02   1.193308E+02   1.193283E+02   1.193258E+02   1.193233E+02   1.193208E+02   1.193183E+02   1.193158E+02   1.193133E+02   1.193108E+02   1.193083E+02   1.193058E+02   1.193033E+02   1.193008E+02   1.192982E+02   1.192957E+02   1.192932E+02   1.192907E+02   1.192882E+02   1.192857E+02   1.192832E+02   1.192807E+02   1.192782E+02   1.192770E+02   1.192770E+02   1.192770E+02   1.192770E+02   1.192770E+02   1.192770E+02   1.192464E+02   1.191871E+02   1.191278E+02   1.190685E+02   1.190093E+02   1.189500E+02   1.188907E+02   1.188314E+02   1.187721E+02   1.187129E+02   1.186536E+02   1.185943E+02   1.185350E+02   1.184757E+02   1.184165E+02   1.183572E+02   1.182979E+02   1.182386E+02   1.181794E+02   1.181201E+02   1.180608E+02   1.180015E+02   1.179422E+02   1.178830E+02   1.178237E+02   1.177644E+02   1.177051E+02   1.176458E+02   1.175866E+02   1.175298E+02   1.174738E+02
   1.193400E+02   1.193400E+02   1.193400E+02   1.193400E+02   1.193400E+02   1.193400E+02   1.193400E+02   1.193400E+02   1.193392E+02   1.193367E+02   1.193341E+02   1.193316E+02   1.193292E+02   1.193267E+02   1.193242E+02   1.193216E+02   1.193191E+02   1.193166E+02   1.193141E+02   1.193116E+02   1.193091E+02   1.193066E+02   1.193041E+02   1.193016E+02   1.192991E+02   1.192966E+02   1.192941E+02   1.192916E+02   1.192891E+02   1.192866E+02   1.192841E+02   1.192816E+02   1.192791E+02   1.192770E+02   1.192770E+02   1.192770E+02   1.192770E+02   1.192770E+02   1.192524E+02   1.191931E+02   1.191338E+02   1.190746E+02   1.190153E+02   1.189560E+02   1.188967E+02   1.188374E+02   1.187782E+02   1.187189E+02   1.186596E+02   1.186003E+02   1.185411E+02   1.184818E+02   1.184225E+02   1.183632E+02   1.183039E+02   1.182447E+02   1.181854E+02   1.181261E+02   1.180668E+02   1.180075E+02   1.179483E+02   1.178890E+02   1.178297E+02   1.177704E+02   1.177112E+02   1.176519E+02   1.175926E+02   1.175333E+02   1.174766E+02   1.174206E+02
   1.193400E+02   1.193400E+02   1.193400E+02   1.193400E+02   1.193400E+02   1.193400E+02   1.193400E+02   1.193400E+02   1.193400E+02   1.193375E+02   1.193350E+02   1.193325E+02   1.193300E+02   1.193275E+02   1.193250E+02   1.193225E+02   1.193200E+02   1.193175E+02   1.193150E+02   1.193125E+02   1.193100E+02   1.193075E+02   1.193050E+02   1.193025E+02   1.193000E+02   1.192975E+02   1.192950E+02   1.192925E+02   1.192900E+02   1.192875E+02   1.192850E+02   1.192824E+02   1.192799E+02   1.192774E+02   1.192770E+02   1.192770E+02   1.192770E+02   1.192584E+02   1.191992E+02   1.191399E+02   1.190806E+02   1.190213E+02   1.189620E+02   1.189028E+02   1.188435E+02   1.187842E+02   1.187249E+02   1.186656E+02   1.186064E+02   1.185471E+02   1.184878E+02   1.184285E+02   1.183692E+02   1.183100E+02   1.182507E+02   1.181914E+02   1.181321E+02   1.180729E+02   1.180136E+02   1.179543E+02   1.178950E+02   1.178357E+02   1.177765E+02   1.177172E+02   1.176579E+02   1.175986E+02   1.175393E+02   1.174801E+02   1.174233E+02   1.173673E+02
   1.193400E+02   1.193400E+02   1.193400E+02   1.193400E+02   1.193400E+02   1.193400E+02   1.193400E+02   1.193400E+02   1.193400E+02   1.193384E+02   1.193359E+02   1.193334E+02   1.193309E+02   1.193284E+02   1.193259E+02   1.193234E+02   1.193209E+02   1.193184E+02   1.193159E+02   1.193134E+02   1.193109E+02   1.193083E+02   1.193058E+02   1.193033E+02   1.193008E+02   1.192983E+02   1.192958E+02   1.192933E+02   1.192908E+02   1.192883E+02   1.192858E+02   1.192833E+02   1.192808E+02   1.192783E+02   1.192770E+02   1.192770E+02   1.192645E+02   1.192052E+02   1.191459E+02   1.190866E+02   1.190273E+02   1.189681E+02   1.189088E+02   1.188495E+02   1.187902E+02   1.187309E+02   1.186717E+02   1.186124E+02   1.185531E+02   1.184938E+02   1.184346E+02   1.183753E+02   1.183160E+02   1.182567E+02   1.181974E+02   1.181382E+02   1.180789E+02   1.180196E+02   1.179603E+02   1.179010E+02   1.178418E+02   1.177825E+02   1.177232E+02   1.176639E+02   1.176047E+02   1.175454E+02   1.174861E+02   1.174268E+02   1.173701E+02   1.173141E+02
   1.193400E+02   1.193400E+02   1.193400E+02   1.193400E+02   1.193400E+02   1.193400E+02   1.193400E+02   1.193400E+02   1.193400E+02   1.193393E+02   1.193367E+02   1.193342E+02   1.193317E+02   1.193292E+02   1.193267E+02   1.193242E+02   1.193217E+02   1.193192E+02   1.193167E+02   1.193142E+02   1.193117E+02   1.193092E+02   1.193067E+02   1.193042E+02   1.193017E+02   1.192992E+02   1.192967E+02   1.192942E+02   1.192917E+02   1.192892E+02   1.192867E+02   1.192842E+02   1.192817E+02   1.192792E+02   1.192770E+02   1.192705E+02   1.192112E+02   1.191519E+02   1.190927E+02   1.190334E+02   1.189741E+02   1.189148E+02   1.188555E+02   1.187963E+02   1.187370E+02   1.186777E+02   1.186184E+02   1.185591E+02   1.184999E+02   1.184406E+02   1.183813E+02   1.183220E+02   1.182627E+02   1.182035E+02   1.181442E+02   1.180849E+02   1.180256E+02   1.179664E+02   1.179071E+02   1.178478E+02   1.177885E+02   1.177292E+02   1.176700E+02   1.176107E+02   1.175514E+02   1.174921E+02   1.174329E+02   1.173736E+02   1.173168E+02   1.172608E+02
   1.193400E+02   1.193400E+02   1.193400E+02   1.193400E+02   1.193400E+02   1.193400E+02   1.193400E+02   1.193400E+02   1.193400E+02   1.193400E+02   1.193376E+02   1.193351E+02   1.193326E+02   1.193301E+02   1.193276E+02   1.193251E+02   1.193226E+02   1.193201E+02   1.193176E+02   1.193151E+02   1.193126E+02   1.193101E+02   1.193076E+02   1.193051E+02   1.193026E+02   1.193001E+02   1.192976E+02   1.192951E+02   1.192925E+02   1.192900E+02   1.192875E+02   1.192850E+02   1.192825E+02   1.192800E+02   1.192720E+02   1.192172E+02   1.191580E+02   1.190987E+02   1.190394E+02   1.189801E+02   1.189208E+02   1.188616E+02   1.188023E+02   1.187430E+02   1.186837E+02   1.186245E+02   1.185652E+02   1.185059E+02   1.184466E+02   1.183873E+02   1.183281E+02   1.182688E+02   1.182095E+02   1.181502E+02   1.180909E+02   1.180317E+02   1.179724E+02   1.179131E+02   1.178538E+02   1.177946E+02   1.177353E+02   1.176760E+02   1.176167E+02   1.175574E+02   1.174982E+02   1.174389E+02   1.173796E+02   1.173203E+02   1.172636E+02   1.172076E+02
   1.193400E+02   1.193400E+02   1.193400E+02   1.193400E+02   1.193400E+02   1.193400E+02   1.193400E+02   1.193400E+02   1.193400E+02   1.193400E+02   1.193384E+02   1.193359E+02   1.193335E+02   1.193310E+02   1.193285E+02   1.193260E+02   1.193235E+02   1.193210E+02   1.193184E+02   1.193159E+02   1.193134E+02   1.193109E+02   1.193084E+02   1.193059E+02   1.193034E+02   1.193009E+02   1.192984E+02   1.192959E+02   1.192934E+02   1.192909E+02   1.192884E+02   1.192826E+02   1.192676E+02   1.192509E+02   1.192005E+02   1.191501E+02   1.191047E+02   1.190454E+02   1.189862E+02   1.189269E+02   1.188676E+02   1.188083E+02   1.187490E+02   1.186898E+02   1.186305E+02   1.185712E+02   1.185119E+02   1.184526E+02   1.183934E+02   1.183341E+02   1.182748E+02   1.182155E+02   1.181562E+02   1.180970E+02   1.180377E+02   1.179784E+02   1.179191E+02   1.178599E+02   1.178006E+02   1.177413E+02   1.176820E+02   1.176227E+02   1.175635E+02   1.175042E+02   1.174449E+02   1.173856E+02   1.173264E+02   1.172671E+02   1.172103E+02   1.171543E+02
   1.193400E+02   1.193400E+02   1.193400E+02   1.193400E+02   1.193400E+02   1.193400E+02   1.193400E+02   1.193400E+02   1.193400E+02   1.193400E+02   1.193393E+02   1.193368E+02   1.193343E+02   1.193318E+02   1.193293E+02   1.193268E+02   1.193243E+02   1.193218E+02   1.193193E+02   1.193168E+02   1.193143E+02   1.193118E+02   1.193093E+02   1.193068E+02   1.193043E+02   1.193018E+02   1.192993E+02   1.192968E+02   1.192922E+02   1.192772E+02   1.192622E+02   1.192472E+02   1.192299E+02   1.191795E+02   1.191291E+02   1.190787E+02   1.190283E+02   1.189922E+02   1.189329E+02   1.188736E+02   1.188143E+02   1.187551E+02   1.186958E+02   1.186365E+02   1.185772E+02   1.185180E+02   1.184587E+02   1.183994E+02   1.183401E+02   1.182808E+02   1.182216E+02   1.181623E+02   1.181030E+02   1.180437E+02   1.179845E+02   1.179252E+02   1.178659E+02   1.178066E+02   1.177473E+02   1.176881E+02   1.176288E+02   1.175695E+02   1.175102E+02   1.174509E+02   1.173917E+02   1.173324E+02   1.172731E+02   1.172138E+02   1.171571E+02   1.171011E+02
   1.193400E+02   1.193400E+02   1.193400E+02   1.193400E+02   1.193400E+02   1.193400E+02   1.193400E+02   1.193400E+02   1.193400E+02   1.193400E+02   1.193400E+02   1.193377E+02   1.193352E+02   1.193327E+02   1.193302E+02   1.193277E+02   1.193252E+02   1.193227E+02   1.193202E+02   1.193177E+02   1.193152E+02   1.193127E+02   1.193102E+02   1.193077E+02   1.193052E+02   1.193018E+02   1.192868E+02   1.192718E+02   1.192568E+02   1.192418E+02   1.192268E+02   1.192088E+02   1.191585E+02   1.191081E+02   1.190577E+02   1.190073E+02   1.189569E+02   1.189065E+02   1.188797E+02   1.188204E+02   1.187611E+02   1.187018E+02   1.186425E+02   1.185833E+02   1.185240E+02   1.184647E+02   1.184054E+02   1.183462E+02   1.182869E+02   1.182276E+02   1.181683E+02   1.181090E+02   1.180498E+02   1.179905E+02   1.179312E+02   1.178719E+02   1.178126E+02   1.177534E+02   1.176941E+02   1.176348E+02   1.175755E+02   1.175163E+02   1.174570E+02   1.173977E+02   1.173384E+02   1.172791E+02   1.172199E+02   1.171606E+02   1.171038E+02   1.170478E+02
   1.193400E+02   1.193400E+02   1.193400E+02   1.193400E+02   1.193400E+02   1.193400E+02   1.193400E+02   1.193400E+02   1.193400E+02   1.193400E+02   1.193400E+02   1.193385E+02   1.193361E+02   1.193335E+02   1.193310E+02   1.193285E+02   1.193260E+02   1.193235E+02   1.193210E+02   1.193185E+02   1.193160E+02   1.193135E+02   1.193110E+02   1.192964E+02   1.192814E+02   1.192664E+02   1.192514E+02   1.192364E+02   1.192214E+02   1.192064E+02   1.191878E+02   1.191374E+02   1.190870E+02   1.190366E+02   1.189862E+02   1.189358E+02   1.188855E+02   1.188351E+02   1.187847E+02   1.187671E+02   1.187078E+02   1.186486E+02   1.185893E+02   1.185300E+02   1.184707E+02   1.184115E+02   1.183522E+02   1.182929E+02   1.182336E+02   1.181743E+02   1.181151E+02   1.180558E+02   1.179965E+02   1.179372E+02   1.178780E+02   1.178187E+02   1.177594E+02   1.177001E+02   1.176408E+02   1.175816E+02   1.175223E+02   1.174630E+02   1.174037E+02   1.173444E+02   1.172852E+02   1.172259E+02   1.171666E+02   1.171073E+02   1.170506E+02   1.169946E+02
   1.193400E+02   1.193400E+02   1.193400E+02   1.193400E+02   1.193400E+02   1.193400E+02   1.193400E+02   1.193400E+02   1.193400E+02   1.193400E+02   1.193400E+02   1.193394E+02   1.193369E+02   1.193344E+02   1.193319E+02   1.193294E+02   1.193269E+02   1.193244E+02   1.193219E+02   1.193194E+02   1.193060E+02   1.192910E+02   1.192760E+02   1.192610E+02   1.192460E+02   1.192309E+02   1.192160E+02   1.192010E+02   1.191859E+02   1.191668E+02   1.191164E+02   1.190660E+02   1.190156E+02   1.189652E+02   1.189148E+02   1.188644E+02   1.188140E+02   1.187636E+02   1.187132E+02   1.186628E+02   1.186546E+02   1.185953E+02   1.185360E+02   1.184768E+02   1.184175E+02   1.183582E+02   1.182989E+02   1.182397E+02   1.181804E+02   1.181211E+02   1.180618E+02   1.180025E+02   1.179433E+02   1.178840E+02   1.178247E+02   1.177654E+02   1.177061E+02   1.176469E+02   1.175876E+02   1.175283E+02   1.174690E+02   1.174098E+02   1.173505E+02   1.172912E+02   1.172319E+02   1.171726E+02   1.171134E+02   1.170541E+02   1.169973E+02   1.169413E+02
   1.193400E+02   1.193400E+02   1.193400E+02   1.193400E+02   1.193400E+02   1.193400E+02   1.193400E+02   1.193400E+02   1.193400E+02   1.193400E+02   1.193400E+02   1.193400E+02   1.193378E+02   1.193353E+02   1.193328E+02   1.193303E+02   1.193278E+02   1.193156E+02   1.193006E+02   1.192855E+02   1.192705E+02   1.192555E+02   1.192405E+02   1.192255E+02   1.192105E+02   1.191955E+02   1.191805E+02   1.191655E+02   1.191457E+02   1.190953E+02   1.190449E+02   1.189945E+02   1.189441E+02   1.188938E+02   1.188434E+02   1.187930E+02   1.187426E+02   1.186922E+02   1.186418E+02   1.185914E+02   1.185410E+02   1.185398E+02   1.184828E+02   1.184235E+02   1.183642E+02   1.183050E+02   1.182457E+02   1.181864E+02   1.181271E+02   1.180678E+02   1.180086E+02   1.179493E+02   1.178900E+02   1.178307E+02   1.177715E+02   1.177122E+02   1.176529E+02   1.175936E+02   1.175343E+02   1.174751E+02   1.174158E+02   1.173565E+02   1.172972E+02   1.172379E+02   1.171787E+02   1.171194E+02   1.170601E+02   1.170008E+02   1.169441E+02   1.168881E+02
   1.193606E+02   1.193576E+02   1.193546E+02   1.193516E+02   1.193486E+02   1.193456E+02   1.193426E+02   1.193400E+02   1.193400E+02   1.193400E+02   1.193400E+02   1.193400E+02   1.193386E+02   1.193361E+02   1.193251E+02   1.193101E+02   1.192951E+02   1.192801E+02   1.192651E+02   1.192501E+02   1.192351E+02   1.192201E+02   1.192051E+02   1.191901E+02   1.191751E+02   1.191601E+02   1.191451E+02   1.191247E+02   1.190743E+02   1.190239E+02   1.189735E+02   1.189231E+02   1.188727E+02   1.188223E+02   1.187719E+02   1.187215E+02   1.186711E+02   1.186208E+02   1.185704E+02   1.185200E+02   1.184696E+02   1.184192E+02   1.184173E+02   1.183703E+02   1.183110E+02   1.182517E+02   1.181924E+02   1.181332E+02   1.180739E+02   1.180146E+02   1.179553E+02   1.178960E+02   1.178368E+02   1.177775E+02   1.177182E+02   1.176589E+02   1.175996E+02   1.175404E+02   1.174811E+02   1.174218E+02   1.173625E+02   1.173033E+02   1.172440E+02   1.171847E+02   1.171254E+02   1.170661E+02   1.170069E+02   1.169476E+02   1.168908E+02   1.168348E+02
   1.193856E+02   1.193826E+02   1.193796E+02   1.193766E+02   1.193736E+02   1.193706E+02   1.193676E+02   1.193646E+02   1.193616E+02   1.193586E+02   1.193556E+02   1.193526E+02   1.193297E+02   1.193047E+02   1.192897E+02   1.192747E+02   1.192597E+02   1.192447E+02   1.192297E+02   1.192147E+02   1.191997E+02   1.191847E+02   1.191697E+02   1.191547E+02   1.191397E+02   1.191247E+02   1.191036E+02   1.190532E+02   1.190028E+02   1.189525E+02   1.189021E+02   1.188517E+02   1.188013E+02   1.187509E+02   1.187005E+02   1.186501E+02   1.185997E+02   1.185493E+02   1.184989E+02   1.184485E+02   1.183981E+02   1.183478E+02   1.182974E+02   1.182948E+02   1.182577E+02   1.181985E+02   1.181392E+02   1.180799E+02   1.180206E+02   1.179613E+02   1.179021E+02   1.178428E+02   1.177835E+02   1.177242E+02   1.176650E+02   1.176057E+02   1.175464E+02   1.174871E+02   1.174278E+02   1.173686E+02   1.173093E+02   1.172500E+02   1.171907E+02   1.171314E+02   1.170722E+02   1.170129E+02   1.169536E+02   1.168943E+02   1.168376E+02   1.167816E+02
   1.194106E+02   1.194076E+02   1.194046E+02   1.194016E+02   1.193986E+02   1.193956E+02   1.193926E+02   1.193896E+02   1.193866E+02   1.193836E+02   1.193805E+02   1.193775E+02   1.193486E+02   1.192952E+02   1.192543E+02   1.192393E+02   1.192243E+02   1.192093E+02   1.191943E+02   1.191793E+02   1.191643E+02   1.191493E+02   1.191343E+02   1.191193E+02   1.191043E+02   1.190826E+02   1.190322E+02   1.189818E+02   1.189314E+02   1.188810E+02   1.188306E+02   1.187802E+02   1.187298E+02   1.186795E+02   1.186291E+02   1.185787E+02   1.185283E+02   1.184779E+02   1.184275E+02   1.183771E+02   1.183267E+02   1.182763E+02   1.182259E+02   1.181755E+02   1.181723E+02   1.181452E+02   1.180859E+02   1.180267E+02   1.179674E+02   1.179081E+02   1.178488E+02   1.177895E+02   1.177303E+02   1.176710E+02   1.176117E+02   1.175524E+02   1.174931E+02   1.174339E+02   1.173746E+02   1.173153E+02   1.172560E+02   1.171968E+02   1.171375E+02   1.170782E+02   1.170189E+02   1.169596E+02   1.169004E+02   1.168411E+02   1.167843E+02   1.167283E+02
   1.194355E+02   1.194325E+02   1.194295E+02   1.194265E+02   1.194235E+02   1.194205E+02   1.194175E+02   1.194145E+02   1.194115E+02   1.194085E+02   1.194055E+02   1.194025E+02   1.193675E+02   1.193141E+02   1.192608E+02   1.192074E+02   1.191889E+02   1.191739E+02   1.191589E+02   1.191439E+02   1.191289E+02   1.191139E+02   1.190989E+02   1.190839E+02   1.190615E+02   1.190111E+02   1.189608E+02   1.189104E+02   1.188600E+02   1.188096E+02   1.187592E+02   1.187088E+02   1.186584E+02   1.186080E+02   1.185576E+02   1.185072E+02   1.184568E+02   1.184064E+02   1.183561E+02   1.183057E+02   1.182553E+02   1.182049E+02   1.181545E+02   1.181041E+02   1.180537E+02   1.180498E+02   1.180327E+02   1.179734E+02   1.179141E+02   1.178549E+02   1.177956E+02   1.177363E+02   1.176770E+02   1.176177E+02   1.175585E+02   1.174992E+02   1.174399E+02   1.173806E+02   1.173213E+02   1.172621E+02   1.172028E+02   1.171435E+02   1.170842E+02   1.170249E+02   1.169657E+02   1.169064E+02   1.168471E+02   1.167878E+02   1.167311E+02   1.166751E+02
   1.194605E+02   1.194575E+02   1.194545E+02   1.194515E+02   1.194485E+02   1.194455E+02   1.194425E+02   1.194395E+02   1.194365E+02   1.194335E+02   1.194305E+02   1.194275E+02   1.193864E+02   1.193331E+02   1.192797E+02   1.192264E+02   1.191730E+02   1.191385E+02   1.191235E+02   1.191085E+02   1.190935E+02   1.190785E+02   1.190635E+02   1.190405E+02   1.189901E+02   1.189397E+02   1.188893E+02   1.188389E+02   1.187885E+02   1.187382E+02   1.186878E+02   1.186374E+02   1.185870E+02   1.185366E+02   1.184862E+02   1.184358E+02   1.183854E+02   1.183350E+02   1.182846E+02   1.182342E+02   1.181838E+02   1.181334E+02   1.180831E+02   1.180327E+02   1.179823E+02   1.179319E+02   1.179273E+02   1.179202E+02   1.178609E+02   1.178016E+02   1.177423E+02   1.176830E+02   1.176238E+02   1.175645E+02   1.175052E+02   1.174459E+02   1.173867E+02   1.173274E+02   1.172681E+02   1.172088E+02   1.171495E+02   1.170903E+02   1.170310E+02   1.169717E+02   1.169124E+02   1.168531E+02   1.167939E+02   1.167346E+02   1.166778E+02   1.166218E+02
   1.194780E+02   1.194780E+02   1.194780E+02   1.194764E+02   1.194734E+02   1.194705E+02   1.194674E+02   1.194644E+02   1.194614E+02   1.194585E+02   1.194554E+02   1.194524E+02   1.194053E+02   1.193520E+02   1.192986E+02   1.192453E+02   1.191919E+02   1.191386E+02   1.190881E+02   1.190731E+02   1.190581E+02   1.190431E+02   1.190195E+02   1.189691E+02   1.189187E+02   1.188683E+02   1.188179E+02   1.187675E+02   1.187171E+02   1.186667E+02   1.186163E+02   1.185659E+02   1.185155E+02   1.184651E+02   1.184148E+02   1.183644E+02   1.183140E+02   1.182636E+02   1.182132E+02   1.181628E+02   1.181124E+02   1.180620E+02   1.180116E+02   1.179612E+02   1.179108E+02   1.178604E+02   1.178101E+02   1.178049E+02   1.178076E+02   1.177484E+02   1.176891E+02   1.176298E+02   1.175705E+02   1.175112E+02   1.174520E+02   1.173927E+02   1.173334E+02   1.172741E+02   1.172148E+02   1.171556E+02   1.170963E+02   1.170370E+02   1.169777E+02   1.169185E+02   1.168592E+02   1.167999E+02   1.167406E+02   1.166813E+02   1.166246E+02   1.165686E+02
   1.194780E+02   1.194780E+02   1.194780E+02   1.194780E+02   1.194780E+02   1.194780E+02   1.194780E+02   1.194780E+02   1.194780E+02   1.194780E+02   1.194780E+02   1.194770E+02   1.194242E+02   1.193709E+02   1.193175E+02   1.192642E+02   1.192108E+02   1.191575E+02   1.191041E+02   1.190508E+02   1.190226E+02   1.189984E+02   1.189480E+02   1.188976E+02   1.188472E+02   1.187968E+02   1.187465E+02   1.186961E+02   1.186457E+02   1.185953E+02   1.185449E+02   1.184945E+02   1.184441E+02   1.183937E+02   1.183433E+02   1.182929E+02   1.182425E+02   1.181921E+02   1.181418E+02   1.180914E+02   1.180410E+02   1.179906E+02   1.179402E+02   1.178898E+02   1.178394E+02   1.177890E+02   1.177386E+02   1.176882E+02   1.176824E+02   1.176951E+02   1.176358E+02   1.175765E+02   1.175173E+02   1.174580E+02   1.173987E+02   1.173394E+02   1.172802E+02   1.172209E+02   1.171616E+02   1.171023E+02   1.170430E+02   1.169838E+02   1.169245E+02   1.168652E+02   1.168059E+02   1.167467E+02   1.166874E+02   1.166281E+02   1.165713E+02   1.165153E+02