# LPF for MODFLOW, generated by Flopy.
        53    -1E+20         0  
         1         1         1         1         1
         0         0         0         0         0
  -1.000000E+00  -1.000000E+00  -1.000000E+00  -1.000000E+00  -1.000000E+00
         0         0         0         0         0
         1         1         1         1         1
  0.500000        20         1
INTERNAL               1     (FREE) 12 #hk                            
   1.000000E-04   1.000000E-04   1.000000E-04   1.000000E-04   1.000000E-04   1.000000E-04   1.000000E-04   1.000000E-04   1.000000E-04   1.000000E-04   1.000000E-04   1.000000E-04   1.000000E-04   1.000000E-04   1.000000E-04   1.000000E-04   1.000000E-04   1.000000E-04   1.000000E-04   1.000000E-04   1.000000E-04   1.000000E-04   1.000000E-04   1.000000E-04   1.000000E-04   1.000000E-04   1.000000E-04   1.000000E-04   1.000000E-04   1.000000E-04   1.000000E-04   1.000000E-04   1.000000E-04   1.000000E-04   1.000000E-04   1.000000E-04   1.000000E-04   1.000000E-04   1.000000E-04   1.000000E-04   1.000000E-04   1.000000E-04   1.000000E-04   1.000000E-04   1.000000E-04   1.000000E-04   1.000000E-04   1.000000E-04   1.000000E-04   1.000000E-04   1.000000E-04   1.000000E-04   1.000000E-04   1.000000E-04   1.000000E-04   1.000000E-04   1.000000E-04   1.000000E-04   1.000000E-04   1.000000E-04   1.000000E-04   1.000000E-04   1.000000E-04   1.000000E-04   1.000000E-04   1.000000E-04   1.000000E-04   1.000000E-04   1.000000E-04   1.000000E-04
   7.500000E-04   7.500000E-04   7.500000E-04   7.500000E-04   7.500000E-04   7.500000E-04   7.500000E-04   7.500000E-04   7.400000E-04   7.400000E-04   7.400000E-04   7.400000E-04   7.400000E-04   7.400000E-04   7.400000E-04   7.300000E-04   7.300000E-04   7.300000E-04   7.300000E-04   7.300000E-04   7.200000E-04   7.200000E-04   7.200000E-04   7.200000E-04   7.200000E-04   7.100000E-04   7.100000E-04   7.100000E-04   7.100000E-04   7.100000E-04   7.000000E-04   7.000000E-04   7.000000E-04   7.000000E-04   7.000000E-04   7.000000E-04   7.000000E-04   7.000000E-04   7.000000E-04   7.000000E-04   7.000000E-04   7.100000E-04   7.100000E-04   7.100000E-04   7.100000E-04   7.200000E-04   7.200000E-04   7.200000E-04   7.200000E-04   7.300000E-04   7.300000E-04   7.300000E-04   7.300000E-04   7.400000E-04   7.400000E-04   7.400000E-04   7.400000E-04   7.500000E-04   7.500000E-04   7.500000E-04   7.500000E-04   7.500000E-04   7.500000E-04   7.600000E-04   7.600000E-04   7.600000E-04   7.600000E-04   7.600000E-04   7.600000E-04   7.600000E-04
   7.500000E-04   7.500000E-04   7.500000E-04   7.500000E-04   7.500000E-04   7.500000E-04   7.500000E-04   7.500000E-04   7.500000E-04   7.400000E-04   7.400000E-04   7.400000E-04   7.400000E-04   7.400000E-04   7.400000E-04   7.400000E-04   7.300000E-04   7.300000E-04   7.300000E-04   7.300000E-04   7.300000E-04   7.200000E-04   7.200000E-04   7.200000E-04   7.200000E-04   7.100000E-04   7.100000E-04   7.100000E-04   7.100000E-04   7.000000E-04   7.000000E-04   7.000000E-04   7.000000E-04   7.000000E-04   7.000000E-04   7.000000E-04   7.000000E-04   7.000000E-04   7.000000E-04   7.000000E-04   7.000000E-04   7.000000E-04   7.100000E-04   7.100000E-04   7.100000E-04   7.100000E-04   7.200000E-04   7.200000E-04   7.200000E-04   7.300000E-04   7.300000E-04   7.300000E-04   7.300000E-04   7.400000E-04   7.400000E-04   7.400000E-04   7.400000E-04   7.500000E-04   7.500000E-04   7.500000E-04   7.500000E-04   7.500000E-04   7.600000E-04   7.600000E-04   7.600000E-04   7.600000E-04   7.600000E-04   7.600000E-04   7.600000E-04   7.600000E-04
   7.500000E-04   7.500000E-04   7.500000E-04   7.500000E-04   7.500000E-04   7.500000E-04   7.500000E-04   7.500000E-04   7.500000E-04   7.500000E-04   7.400000E-04   7.400000E-04   7.400000E-04   7.400000E-04   7.400000E-04   7.400000E-04   7.300000E-04   7.300000E-04   7.300000E-04   7.300000E-04   7.300000E-04   7.200000E-04   7.200000E-04   7.200000E-04   7.200000E-04   7.100000E-04   7.100000E-04   7.100000E-04   7.100000E-04   7.000000E-04   7.000000E-04   7.000000E-04   7.000000E-04   7.000000E-04   7.000000E-04   7.000000E-04   7.000000E-04   7.000000E-04   7.000000E-04   7.000000E-04   7.000000E-04   7.000000E-04   7.100000E-04   7.100000E-04   7.100000E-04   7.100000E-04   7.200000E-04   7.200000E-04   7.200000E-04   7.300000E-04   7.300000E-04   7.300000E-04   7.300000E-04   7.400000E-04   7.400000E-04   7.400000E-04   7.400000E-04   7.500000E-04   7.500000E-04   7.500000E-04   7.500000E-04   7.500000E-04   7.600000E-04   7.600000E-04   7.600000E-04   7.600000E-04   7.600000E-04   7.600000E-04   7.600000E-04   7.600000E-04
   7.500000E-04   7.500000E-04   7.500000E-04   7.500000E-04   7.500000E-04   7.500000E-04   7.500000E-04   7.500000E-04   7.500000E-04   7.500000E-04   7.500000E-04   7.400000E-04   7.400000E-04   7.400000E-04   7.400000E-04   7.400000E-04   7.400000E-04   7.300000E-04   7.300000E-04   7.300000E-04   7.300000E-04   7.200000E-04   7.200000E-04   7.200000E-04   7.200000E-04   7.100000E-04   7.100000E-04   7.100000E-04   7.000000E-04   7.000000E-04   7.000000E-04   7.000000E-04   6.900000E-04   6.900000E-04   6.900000E-04   6.900000E-04   6.900000E-04   6.900000E-04   7.000000E-04   7.000000E-04   7.000000E-04   7.000000E-04   7.100000E-04   7.100000E-04   7.100000E-04   7.100000E-04   7.200000E-04   7.200000E-04   7.200000E-04   7.300000E-04   7.300000E-04   7.300000E-04   7.400000E-04   7.400000E-04   7.400000E-04   7.400000E-04   7.500000E-04   7.500000E-04   7.500000E-04   7.500000E-04   7.500000E-04   7.600000E-04   7.600000E-04   7.600000E-04   7.600000E-04   7.600000E-04   7.600000E-04   7.600000E-04   7.600000E-04   7.700000E-04
   7.500000E-04   7.500000E-04   7.500000E-04   7.500000E-04   7.500000E-04   7.500000E-04   7.500000E-04   7.500000E-04   7.500000E-04   7.500000E-04   7.500000E-04   7.500000E-04   7.400000E-04   7.400000E-04   7.400000E-04   7.400000E-04   7.400000E-04   7.300000E-04   7.300000E-04   7.300000E-04   7.300000E-04   7.300000E-04   7.200000E-04   7.200000E-04   7.200000E-04   7.100000E-04   7.100000E-04   7.100000E-04   7.000000E-04   7.000000E-04   7.000000E-04   7.000000E-04   6.900000E-04   6.900000E-04   6.900000E-04   6.900000E-04   6.900000E-04   6.900000E-04   6.900000E-04   7.000000E-04   7.000000E-04   7.000000E-04   7.000000E-04   7.100000E-04   7.100000E-04   7.100000E-04   7.200000E-04   7.200000E-04   7.200000E-04   7.300000E-04   7.300000E-04   7.300000E-04   7.400000E-04   7.400000E-04   7.400000E-04   7.400000E-04   7.500000E-04   7.500000E-04   7.500000E-04   7.500000E-04   7.600000E-04   7.600000E-04   7.600000E-04   7.600000E-04   7.600000E-04   7.600000E-04   7.600000E-04   7.600000E-04   7.700000E-04   7.700000E-04
   7.600000E-04   7.600000E-04   7.500000E-04   7.500000E-04   7.500000E-04   7.500000E-04   7.500000E-04   7.500000E-04   7.500000E-04   7.500000E-04   7.500000E-04   7.500000E-04   7.400000E-04   7.400000E-04   7.400000E-04   7.400000E-04   7.400000E-04   7.400000E-04   7.300000E-04   7.300000E-04   7.300000E-04   7.300000E-04   7.200000E-04   7.200000E-04   7.200000E-04   7.100000E-04   7.100000E-04   7.100000E-04   7.000000E-04   7.000000E-04   7.000000E-04   6.900000E-04   6.900000E-04   6.900000E-04   6.900000E-04   6.900000E-04   6.900000E-04   6.900000E-04   6.900000E-04   6.900000E-04   7.000000E-04   7.000000E-04   7.000000E-04   7.100000E-04   7.100000E-04   7.100000E-04   7.200000E-04   7.200000E-04   7.200000E-04   7.300000E-04   7.300000E-04   7.300000E-04   7.400000E-04   7.400000E-04   7.400000E-04   7.500000E-04   7.500000E-04   7.500000E-04   7.500000E-04   7.500000E-04   7.600000E-04   7.600000E-04   7.600000E-04   7.600000E-04   7.600000E-04   7.600000E-04   7.700000E-04   7.700000E-04   7.700000E-04   7.700000E-04
   7.600000E-04   7.600000E-04   7.600000E-04   7.500000E-04   7.500000E-04   7.500000E-04   7.500000E-04   7.500000E-04   7.500000E-04   7.500000E-04   7.500000E-04   7.500000E-04   7.500000E-04   7.500000E-04   7.400000E-04   7.400000E-04   7.400000E-04   7.400000E-04   7.400000E-04   7.300000E-04   7.300000E-04   7.300000E-04   7.200000E-04   7.200000E-04   7.200000E-04   7.100000E-04   7.100000E-04   7.100000E-04   7.000000E-04   7.000000E-04   7.000000E-04   6.900000E-04   6.900000E-04   6.900000E-04   6.800000E-04   6.800000E-04   6.900000E-04   6.900000E-04   6.900000E-04   6.900000E-04   7.000000E-04   7.000000E-04   7.000000E-04   7.100000E-04   7.100000E-04   7.100000E-04   7.200000E-04   7.200000E-04   7.200000E-04   7.300000E-04   7.300000E-04   7.300000E-04   7.400000E-04   7.400000E-04   7.400000E-04   7.500000E-04   7.500000E-04   7.500000E-04   7.500000E-04   7.600000E-04   7.600000E-04   7.600000E-04   7.600000E-04   7.600000E-04   7.600000E-04   7.700000E-04   7.700000E-04   7.700000E-04   7.700000E-04   7.700000E-04
   7.600000E-04   7.600000E-04   7.600000E-04   7.600000E-04   7.600000E-04   7.500000E-04   7.500000E-04   7.500000E-04   7.500000E-04   7.500000E-04   7.500000E-04   7.500000E-04   7.500000E-04   7.500000E-04   7.500000E-04   7.400000E-04   7.400000E-04   7.400000E-04   7.400000E-04   7.300000E-04   7.300000E-04   7.300000E-04   7.300000E-04   7.200000E-04   7.200000E-04   7.200000E-04   7.100000E-04   7.100000E-04   7.000000E-04   7.000000E-04   6.900000E-04   6.900000E-04   6.900000E-04   6.800000E-04   6.800000E-04   6.800000E-04   6.800000E-04   6.800000E-04   6.900000E-04   6.900000E-04   6.900000E-04   7.000000E-04   7.000000E-04   7.100000E-04   7.100000E-04   7.100000E-04   7.200000E-04   7.200000E-04   7.300000E-04   7.300000E-04   7.300000E-04   7.400000E-04   7.400000E-04   7.400000E-04   7.400000E-04   7.500000E-04   7.500000E-04   7.500000E-04   7.600000E-04   7.600000E-04   7.600000E-04   7.600000E-04   7.600000E-04   7.600000E-04   7.700000E-04   7.700000E-04   7.700000E-04   7.700000E-04   7.700000E-04   7.700000E-04
   7.600000E-04   7.600000E-04   7.600000E-04   7.600000E-04   7.600000E-04   7.600000E-04   7.600000E-04   7.500000E-04   7.500000E-04   7.500000E-04   7.500000E-04   7.500000E-04   7.500000E-04   7.500000E-04   7.500000E-04   7.500000E-04   7.400000E-04   7.400000E-04   7.400000E-04   7.400000E-04   7.300000E-04   7.300000E-04   7.300000E-04   7.200000E-04   7.200000E-04   7.200000E-04   7.100000E-04   7.100000E-04   7.000000E-04   7.000000E-04   6.900000E-04   6.900000E-04   6.900000E-04   6.800000E-04   6.800000E-04   6.800000E-04   6.800000E-04   6.800000E-04   6.900000E-04   6.900000E-04   6.900000E-04   7.000000E-04   7.000000E-04   7.100000E-04   7.100000E-04   7.100000E-04   7.200000E-04   7.200000E-04   7.300000E-04   7.300000E-04   7.300000E-04   7.400000E-04   7.400000E-04   7.400000E-04   7.500000E-04   7.500000E-04   7.500000E-04   7.500000E-04   7.600000E-04   7.600000E-04   7.600000E-04   7.600000E-04   7.600000E-04   7.700000E-04   7.700000E-04   7.700000E-04   7.700000E-04   7.700000E-04   7.700000E-04   7.700000E-04
   7.600000E-04   7.600000E-04   7.600000E-04   7.600000E-04   7.600000E-04   7.600000E-04   7.600000E-04   7.600000E-04   7.600000E-04   7.500000E-04   7.500000E-04   7.500000E-04   7.500000E-04   7.500000E-04   7.500000E-04   7.500000E-04   7.500000E-04   7.400000E-04   7.400000E-04   7.400000E-04   7.400000E-04   7.300000E-04   7.300000E-04   7.300000E-04   7.200000E-04   7.200000E-04   7.100000E-04   7.100000E-04   7.000000E-04   7.000000E-04   6.900000E-04   6.900000E-04   6.800000E-04   6.800000E-04   6.800000E-04   6.800000E-04   6.800000E-04   6.800000E-04   6.900000E-04   6.900000E-04   6.900000E-04   7.000000E-04   7.000000E-04   7.100000E-04   7.100000E-04   7.200000E-04   7.200000E-04   7.200000E-04   7.300000E-04   7.300000E-04   7.300000E-04   7.400000E-04   7.400000E-04   7.400000E-04   7.500000E-04   7.500000E-04   7.500000E-04   7.600000E-04   7.600000E-04   7.600000E-04   7.600000E-04   7.600000E-04   7.700000E-04   7.700000E-04   7.700000E-04   7.700000E-04   7.700000E-04   7.700000E-04   7.700000E-04   7.700000E-04
   7.600000E-04   7.600000E-04   7.600000E-04   7.600000E-04   7.600000E-04   7.600000E-04   7.600000E-04   7.600000E-04   7.600000E-04   7.600000E-04   7.600000E-04   7.500000E-04   7.500000E-04   7.500000E-04   7.500000E-04   7.500000E-04   7.500000E-04   7.500000E-04   7.400000E-04   7.400000E-04   7.400000E-04   7.400000E-04   7.300000E-04   7.300000E-04   7.200000E-04   7.200000E-04   7.200000E-04   7.100000E-04   7.100000E-04   7.000000E-04   7.000000E-04   6.900000E-04   6.800000E-04   6.800000E-04   6.700000E-04   6.700000E-04   6.800000E-04   6.800000E-04   6.900000E-04   6.900000E-04   6.900000E-04   7.000000E-04   7.000000E-04   7.100000E-04   7.100000E-04   7.200000E-04   7.200000E-04   7.200000E-04   7.300000E-04   7.300000E-04   7.400000E-04   7.400000E-04   7.400000E-04   7.500000E-04   7.500000E-04   7.500000E-04   7.600000E-04   7.600000E-04   7.600000E-04   7.600000E-04   7.600000E-04   7.700000E-04   7.700000E-04   7.700000E-04   7.700000E-04   7.700000E-04   7.700000E-04   7.700000E-04   7.700000E-04   7.700000E-04
   7.600000E-04   7.600000E-04   7.600000E-04   7.600000E-04   7.600000E-04   7.600000E-04   7.600000E-04   7.600000E-04   7.600000E-04   7.600000E-04   7.600000E-04   7.600000E-04   7.600000E-04   7.500000E-04   7.500000E-04   7.500000E-04   7.500000E-04   7.500000E-04   7.500000E-04   7.400000E-04   7.400000E-04   7.400000E-04   7.400000E-04   7.300000E-04   7.300000E-04   7.200000E-04   7.200000E-04   7.100000E-04   7.100000E-04   7.000000E-04   7.000000E-04   6.900000E-04   6.900000E-04   6.800000E-04   6.800000E-04   6.700000E-04   6.800000E-04   6.800000E-04   6.900000E-04   6.900000E-04   7.000000E-04   7.000000E-04   7.000000E-04   7.100000E-04   7.100000E-04   7.200000E-04   7.200000E-04   7.300000E-04   7.300000E-04   7.300000E-04   7.400000E-04   7.400000E-04   7.500000E-04   7.500000E-04   7.500000E-04   7.500000E-04   7.600000E-04   7.600000E-04   7.600000E-04   7.600000E-04   7.700000E-04   7.700000E-04   7.700000E-04   7.700000E-04   7.700000E-04   7.700000E-04   7.700000E-04   7.700000E-04   7.700000E-04   7.800000E-04
   7.600000E-04   7.600000E-04   7.600000E-04   7.600000E-04   7.600000E-04   7.600000E-04   7.600000E-04   7.600000E-04   7.600000E-04   7.600000E-04   7.600000E-04   7.600000E-04   7.600000E-04   7.600000E-04   7.600000E-04   7.500000E-04   7.500000E-04   7.500000E-04   7.500000E-04   7.500000E-04   7.500000E-04   7.400000E-04   7.400000E-04   7.400000E-04   7.300000E-04   7.300000E-04   7.200000E-04   7.200000E-04   7.100000E-04   7.100000E-04   7.000000E-04   6.900000E-04   6.900000E-04   6.800000E-04   6.800000E-04   6.800000E-04   6.800000E-04   6.900000E-04   6.900000E-04   6.900000E-04   7.000000E-04   7.000000E-04   7.100000E-04   7.100000E-04   7.100000E-04   7.200000E-04   7.200000E-04   7.300000E-04   7.300000E-04   7.400000E-04   7.400000E-04   7.400000E-04   7.500000E-04   7.500000E-04   7.500000E-04   7.600000E-04   7.600000E-04   7.600000E-04   7.600000E-04   7.700000E-04   7.700000E-04   7.700000E-04   7.700000E-04   7.700000E-04   7.700000E-04   7.700000E-04   7.800000E-04   7.800000E-04   7.800000E-04   7.800000E-04
   7.600000E-04   7.600000E-04   7.600000E-04   7.600000E-04   7.600000E-04   7.600000E-04   7.600000E-04   7.600000E-04   7.600000E-04   7.600000E-04   7.600000E-04   7.600000E-04   7.600000E-04   7.600000E-04   7.600000E-04   7.600000E-04   7.600000E-04   7.600000E-04   7.500000E-04   7.500000E-04   7.500000E-04   7.500000E-04   7.400000E-04   7.400000E-04   7.300000E-04   7.300000E-04   7.200000E-04   7.200000E-04   7.100000E-04   7.100000E-04   7.000000E-04   7.000000E-04   6.900000E-04   6.900000E-04   6.900000E-04   6.900000E-04   6.900000E-04   6.900000E-04   6.900000E-04   7.000000E-04   7.000000E-04   7.000000E-04   7.100000E-04   7.100000E-04   7.200000E-04   7.200000E-04   7.200000E-04   7.300000E-04   7.300000E-04   7.400000E-04   7.400000E-04   7.500000E-04   7.500000E-04   7.500000E-04   7.600000E-04   7.600000E-04   7.600000E-04   7.600000E-04   7.700000E-04   7.700000E-04   7.700000E-04   7.700000E-04   7.700000E-04   7.700000E-04   7.800000E-04   7.800000E-04   7.800000E-04   7.800000E-04   7.800000E-04   7.800000E-04
   7.700000E-04   7.700000E-04   7.700000E-04   7.700000E-04   7.700000E-04   7.700000E-04   7.700000E-04   7.700000E-04   7.700000E-04   7.600000E-04   7.600000E-04   7.600000E-04   7.600000E-04   7.600000E-04   7.600000E-04   7.600000E-04   7.600000E-04   7.600000E-04   7.600000E-04   7.600000E-04   7.600000E-04   7.500000E-04   7.500000E-04   7.500000E-04   7.400000E-04   7.400000E-04   7.300000E-04   7.300000E-04   7.200000E-04   7.200000E-04   7.100000E-04   7.100000E-04   7.000000E-04   7.000000E-04   7.000000E-04   7.000000E-04   7.000000E-04   7.000000E-04   7.000000E-04   7.000000E-04   7.000000E-04   7.100000E-04   7.100000E-04   7.200000E-04   7.200000E-04   7.200000E-04   7.300000E-04   7.300000E-04   7.400000E-04   7.400000E-04   7.500000E-04   7.500000E-04   7.500000E-04   7.600000E-04   7.600000E-04   7.600000E-04   7.700000E-04   7.700000E-04   7.700000E-04   7.700000E-04   7.700000E-04   7.800000E-04   7.800000E-04   7.800000E-04   7.800000E-04   7.800000E-04   7.800000E-04   7.800000E-04   7.800000E-04   7.800000E-04
   7.700000E-04   7.700000E-04   7.700000E-04   7.700000E-04   7.700000E-04   7.700000E-04   7.700000E-04   7.700000E-04   7.700000E-04   7.700000E-04   7.700000E-04   7.700000E-04   7.700000E-04   7.700000E-04   7.700000E-04   7.700000E-04   7.700000E-04   7.700000E-04   7.700000E-04   7.600000E-04   7.600000E-04   7.600000E-04   7.600000E-04   7.500000E-04   7.500000E-04   7.400000E-04   7.400000E-04   7.300000E-04   7.300000E-04   7.200000E-04   7.200000E-04   7.100000E-04   7.100000E-04   7.000000E-04   7.000000E-04   7.000000E-04   7.000000E-04   7.000000E-04   7.000000E-04   7.000000E-04   7.100000E-04   7.100000E-04   7.100000E-04   7.200000E-04   7.200000E-04   7.300000E-04   7.300000E-04   7.300000E-04   7.400000E-04   7.400000E-04   7.500000E-04   7.500000E-04   7.600000E-04   7.600000E-04   7.600000E-04   7.700000E-04   7.700000E-04   7.700000E-04   7.700000E-04   7.700000E-04   7.800000E-04   7.800000E-04   7.800000E-04   7.800000E-04   7.800000E-04   7.800000E-04   7.800000E-04   7.800000E-04   7.800000E-04   7.800000E-04
   7.700000E-04   7.700000E-04   7.700000E-04   7.700000E-04   7.700000E-04   7.700000E-04   7.700000E-04   7.700000E-04   7.700000E-04   7.700000E-04   7.700000E-04   7.700000E-04   7.700000E-04   7.700000E-04   7.700000E-04   7.700000E-04   7.700000E-04   7.700000E-04   7.700000E-04   7.700000E-04   7.700000E-04   7.600000E-04   7.600000E-04   7.600000E-04   7.500000E-04   7.500000E-04   7.400000E-04   7.400000E-04   7.300000E-04   7.300000E-04   7.200000E-04   7.200000E-04   7.100000E-04   7.100000E-04   7.100000E-04   7.000000E-04   7.000000E-04   7.000000E-04   7.100000E-04   7.100000E-04   7.100000E-04   7.100000E-04   7.200000E-04   7.200000E-04   7.200000E-04   7.300000E-04   7.300000E-04   7.400000E-04   7.400000E-04   7.500000E-04   7.500000E-04   7.500000E-04   7.600000E-04   7.600000E-04   7.700000E-04   7.700000E-04   7.700000E-04   7.700000E-04   7.800000E-04   7.800000E-04   7.800000E-04   7.800000E-04   7.800000E-04   7.800000E-04   7.800000E-04   7.800000E-04   7.800000E-04   7.800000E-04   7.800000E-04   7.800000E-04
   7.700000E-04   7.700000E-04   7.700000E-04   7.700000E-04   7.700000E-04   7.700000E-04   7.700000E-04   7.700000E-04   7.700000E-04   7.700000E-04   7.700000E-04   7.700000E-04   7.700000E-04   7.700000E-04   7.700000E-04   7.700000E-04   7.800000E-04   7.800000E-04   7.800000E-04   7.700000E-04   7.700000E-04   7.700000E-04   7.700000E-04   7.600000E-04   7.600000E-04   7.500000E-04   7.500000E-04   7.400000E-04   7.300000E-04   7.300000E-04   7.200000E-04   7.200000E-04   7.200000E-04   7.100000E-04   7.100000E-04   7.100000E-04   7.100000E-04   7.100000E-04   7.100000E-04   7.100000E-04   7.100000E-04   7.100000E-04   7.200000E-04   7.200000E-04   7.300000E-04   7.300000E-04   7.300000E-04   7.400000E-04   7.400000E-04   7.500000E-04   7.500000E-04   7.600000E-04   7.600000E-04   7.600000E-04   7.700000E-04   7.700000E-04   7.700000E-04   7.800000E-04   7.800000E-04   7.800000E-04   7.800000E-04   7.800000E-04   7.800000E-04   7.800000E-04   7.800000E-04   7.800000E-04   7.800000E-04   7.800000E-04   7.800000E-04   7.800000E-04
   7.700000E-04   7.700000E-04   7.700000E-04   7.700000E-04   7.700000E-04   7.700000E-04   7.700000E-04   7.700000E-04   7.700000E-04   7.700000E-04   7.700000E-04   7.700000E-04   7.700000E-04   7.800000E-04   7.800000E-04   7.800000E-04   7.800000E-04   7.800000E-04   7.800000E-04   7.800000E-04   7.800000E-04   7.800000E-04   7.700000E-04   7.700000E-04   7.600000E-04   7.600000E-04   7.500000E-04   7.400000E-04   7.400000E-04   7.300000E-04   7.300000E-04   7.200000E-04   7.200000E-04   7.200000E-04   7.100000E-04   7.100000E-04   7.100000E-04   7.100000E-04   7.100000E-04   7.100000E-04   7.100000E-04   7.200000E-04   7.200000E-04   7.200000E-04   7.300000E-04   7.300000E-04   7.400000E-04   7.400000E-04   7.400000E-04   7.500000E-04   7.500000E-04   7.600000E-04   7.600000E-04   7.700000E-04   7.700000E-04   7.700000E-04   7.800000E-04   7.800000E-04   7.800000E-04   7.800000E-04   7.800000E-04   7.800000E-04   7.800000E-04   7.900000E-04   7.900000E-04   7.900000E-04   7.900000E-04   7.800000E-04   7.800000E-04   7.800000E-04
   7.700000E-04   7.700000E-04   7.700000E-04   7.700000E-04   7.700000E-04   7.700000E-04   7.700000E-04   7.800000E-04   7.800000E-04   7.800000E-04   7.800000E-04   7.800000E-04   7.800000E-04   7.800000E-04   7.800000E-04   7.800000E-04   7.800000E-04   7.900000E-04   7.900000E-04   7.900000E-04   7.800000E-04   7.800000E-04   7.800000E-04   7.700000E-04   7.700000E-04   7.600000E-04   7.500000E-04   7.500000E-04   7.400000E-04   7.400000E-04   7.300000E-04   7.300000E-04   7.200000E-04   7.200000E-04   7.200000E-04   7.100000E-04   7.100000E-04   7.100000E-04   7.100000E-04   7.100000E-04   7.100000E-04   7.200000E-04   7.200000E-04   7.200000E-04   7.300000E-04   7.300000E-04   7.400000E-04   7.400000E-04   7.500000E-04   7.500000E-04   7.600000E-04   7.600000E-04   7.700000E-04   7.700000E-04   7.700000E-04   7.800000E-04   7.800000E-04   7.800000E-04   7.800000E-04   7.800000E-04   7.900000E-04   7.900000E-04   7.900000E-04   7.900000E-04   7.900000E-04   7.900000E-04   7.900000E-04   7.900000E-04   7.900000E-04   7.900000E-04
   7.700000E-04   7.700000E-04   7.700000E-04   7.700000E-04   7.800000E-04   7.800000E-04   7.800000E-04   7.800000E-04   7.800000E-04   7.800000E-04   7.800000E-04   7.800000E-04   7.800000E-04   7.800000E-04   7.900000E-04   7.900000E-04   7.900000E-04   7.900000E-04   7.900000E-04   7.900000E-04   7.900000E-04   7.900000E-04   7.800000E-04   7.800000E-04   7.700000E-04   7.600000E-04   7.600000E-04   7.500000E-04   7.400000E-04   7.400000E-04   7.300000E-04   7.300000E-04   7.200000E-04   7.200000E-04   7.200000E-04   7.200000E-04   7.100000E-04   7.100000E-04   7.100000E-04   7.100000E-04   7.200000E-04   7.200000E-04   7.200000E-04   7.200000E-04   7.300000E-04   7.300000E-04   7.400000E-04   7.400000E-04   7.500000E-04   7.500000E-04   7.600000E-04   7.600000E-04   7.700000E-04   7.700000E-04   7.800000E-04   7.800000E-04   7.800000E-04   7.800000E-04   7.900000E-04   7.900000E-04   7.900000E-04   7.900000E-04   7.900000E-04   7.900000E-04   7.900000E-04   7.900000E-04   7.900000E-04   7.900000E-04   7.900000E-04   7.900000E-04
   7.700000E-04   7.700000E-04   7.700000E-04   7.800000E-04   7.800000E-04   7.800000E-04   7.800000E-04   7.800000E-04   7.800000E-04   7.800000E-04   7.800000E-04   7.800000E-04   7.900000E-04   7.900000E-04   7.900000E-04   7.900000E-04   7.900000E-04   8.000000E-04   8.000000E-04   8.000000E-04   8.000000E-04   7.900000E-04   7.900000E-04   7.800000E-04   7.700000E-04   7.700000E-04   7.600000E-04   7.500000E-04   7.500000E-04   7.400000E-04   7.400000E-04   7.300000E-04   7.300000E-04   7.200000E-04   7.200000E-04   7.200000E-04   7.100000E-04   7.100000E-04   7.100000E-04   7.100000E-04   7.200000E-04   7.200000E-04   7.200000E-04   7.200000E-04   7.300000E-04   7.300000E-04   7.400000E-04   7.400000E-04   7.500000E-04   7.500000E-04   7.600000E-04   7.700000E-04   7.700000E-04   7.800000E-04   7.800000E-04   7.800000E-04   7.800000E-04   7.900000E-04   7.900000E-04   7.900000E-04   7.900000E-04   7.900000E-04   7.900000E-04   7.900000E-04   7.900000E-04   7.900000E-04   7.900000E-04   7.900000E-04   7.900000E-04   7.900000E-04
   7.700000E-04   7.700000E-04   7.800000E-04   7.800000E-04   7.800000E-04   7.800000E-04   7.800000E-04   7.800000E-04   7.800000E-04   7.800000E-04   7.900000E-04   7.900000E-04   7.900000E-04   7.900000E-04   7.900000E-04   7.900000E-04   8.000000E-04   8.000000E-04   8.000000E-04   8.000000E-04   8.000000E-04   8.000000E-04   7.900000E-04   7.900000E-04   7.800000E-04   7.700000E-04   7.600000E-04   7.600000E-04   7.500000E-04   7.400000E-04   7.400000E-04   7.300000E-04   7.300000E-04   7.200000E-04   7.200000E-04   7.200000E-04   7.100000E-04   7.100000E-04   7.100000E-04   7.100000E-04   7.200000E-04   7.200000E-04   7.200000E-04   7.200000E-04   7.300000E-04   7.300000E-04   7.400000E-04   7.400000E-04   7.500000E-04   7.600000E-04   7.600000E-04   7.700000E-04   7.700000E-04   7.800000E-04   7.800000E-04   7.900000E-04   7.900000E-04   7.900000E-04   7.900000E-04   7.900000E-04   7.900000E-04   7.900000E-04   7.900000E-04   7.900000E-04   7.900000E-04   7.900000E-04   7.900000E-04   7.900000E-04   7.900000E-04   7.900000E-04
   7.700000E-04   7.700000E-04   7.800000E-04   7.800000E-04   7.800000E-04   7.800000E-04   7.800000E-04   7.800000E-04   7.800000E-04   7.900000E-04   7.900000E-04   7.900000E-04   7.900000E-04   7.900000E-04   7.900000E-04   8.000000E-04   8.000000E-04   8.000000E-04   8.000000E-04   8.100000E-04   8.100000E-04   8.100000E-04   8.000000E-04   7.900000E-04   7.800000E-04   7.700000E-04   7.600000E-04   7.600000E-04   7.500000E-04   7.400000E-04   7.400000E-04   7.300000E-04   7.300000E-04   7.200000E-04   7.200000E-04   7.200000E-04   7.100000E-04   7.100000E-04   7.100000E-04   7.100000E-04   7.100000E-04   7.200000E-04   7.200000E-04   7.200000E-04   7.300000E-04   7.300000E-04   7.400000E-04   7.400000E-04   7.500000E-04   7.600000E-04   7.600000E-04   7.700000E-04   7.800000E-04   7.800000E-04   7.800000E-04   7.900000E-04   7.900000E-04   7.900000E-04   7.900000E-04   7.900000E-04   7.900000E-04   7.900000E-04   7.900000E-04   7.900000E-04   7.900000E-04   7.900000E-04   7.900000E-04   7.900000E-04   7.900000E-04   7.900000E-04
   7.700000E-04   7.700000E-04   7.800000E-04   7.800000E-04   7.800000E-04   7.800000E-04   7.800000E-04   7.800000E-04   7.800000E-04   7.900000E-04   7.900000E-04   7.900000E-04   7.900000E-04   7.900000E-04   8.000000E-04   8.000000E-04   8.000000E-04   8.000000E-04   8.000000E-04   8.100000E-04   8.100000E-04   8.000000E-04   8.000000E-04   7.900000E-04   7.800000E-04   7.700000E-04   7.600000E-04   7.600000E-04   7.500000E-04   7.400000E-04   7.400000E-04   7.300000E-04   7.300000E-04   7.200000E-04   7.200000E-04   7.100000E-04   7.100000E-04   7.100000E-04   7.100000E-04   7.100000E-04   7.100000E-04   7.100000E-04   7.200000E-04   7.200000E-04   7.200000E-04   7.300000E-04   7.400000E-04   7.400000E-04   7.500000E-04   7.600000E-04   7.600000E-04   7.700000E-04   7.800000E-04   7.800000E-04   7.900000E-04   7.900000E-04   7.900000E-04   7.900000E-04   7.900000E-04   7.900000E-04   7.900000E-04   7.900000E-04   7.900000E-04   7.900000E-04   7.900000E-04   7.900000E-04   7.900000E-04   7.900000E-04   7.900000E-04   7.900000E-04
   7.700000E-04   7.700000E-04   7.800000E-04   7.800000E-04   7.800000E-04   7.800000E-04   7.800000E-04   7.800000E-04   7.900000E-04   7.900000E-04   7.900000E-04   7.900000E-04   7.900000E-04   7.900000E-04   8.000000E-04   8.000000E-04   8.000000E-04   8.000000E-04   8.000000E-04   8.000000E-04   8.000000E-04   8.000000E-04   7.900000E-04   7.900000E-04   7.800000E-04   7.700000E-04   7.600000E-04   7.600000E-04   7.500000E-04   7.400000E-04   7.400000E-04   7.300000E-04   7.200000E-04   7.200000E-04   7.200000E-04   7.100000E-04   7.100000E-04   7.100000E-04   7.100000E-04   7.100000E-04   7.100000E-04   7.100000E-04   7.100000E-04   7.200000E-04   7.200000E-04   7.300000E-04   7.300000E-04   7.400000E-04   7.500000E-04   7.600000E-04   7.600000E-04   7.700000E-04   7.800000E-04   7.900000E-04   7.900000E-04   7.900000E-04   8.000000E-04   8.000000E-04   8.000000E-04   7.900000E-04   7.900000E-04   7.900000E-04   7.900000E-04   7.900000E-04   7.900000E-04   7.900000E-04   7.900000E-04   7.900000E-04   7.900000E-04   7.900000E-04
   7.700000E-04   7.700000E-04   7.800000E-04   7.800000E-04   7.800000E-04   7.800000E-04   7.800000E-04   7.800000E-04   7.900000E-04   7.900000E-04   7.900000E-04   7.900000E-04   7.900000E-04   7.900000E-04   8.000000E-04   8.000000E-04   8.000000E-04   8.000000E-04   8.000000E-04   8.000000E-04   8.000000E-04   7.900000E-04   7.900000E-04   7.800000E-04   7.800000E-04   7.700000E-04   7.600000E-04   7.500000E-04   7.500000E-04   7.400000E-04   7.300000E-04   7.300000E-04   7.200000E-04   7.200000E-04   7.100000E-04   7.100000E-04   7.100000E-04   7.100000E-04   7.100000E-04   7.000000E-04   7.100000E-04   7.100000E-04   7.100000E-04   7.100000E-04   7.200000E-04   7.200000E-04   7.300000E-04   7.400000E-04   7.400000E-04   7.500000E-04   7.600000E-04   7.700000E-04   7.800000E-04   7.900000E-04   7.900000E-04   8.000000E-04   8.000000E-04   8.000000E-04   8.000000E-04   7.900000E-04   7.900000E-04   7.900000E-04   7.900000E-04   7.900000E-04   7.900000E-04   7.900000E-04   7.900000E-04   7.900000E-04   7.900000E-04   7.800000E-04