# PCG for MODFLOW, generated by Flopy.
20 30 1 0
1e-06 1e-06 1.0 1 1 0 1.0 
